/*--------------------------------*- C++ -*----------------------------------*\
| =========                 |                                                 |
| \\      /  F ield         | OpenFOAM: The Open Source CFD Toolbox           |
|  \\    /   O peration     | Version:  v2406                                 |
|   \\  /    A nd           | Website:  www.openfoam.com                      |
|    \\/     M anipulation  |                                                 |
\*---------------------------------------------------------------------------*/
FoamFile
{
    version     2.0;
    format      ascii;
    class       dictionary;
    object      blockMeshDict;
}
// * * * * * * * * * * * * * * * * * * * * * * * * * * * * * * * * * * * * * //

convertToMeters 1;
l 1.1; // [m] lenght of cone
R 0.2; // [m] biggest radiuse of cone
r 0.1; // [m] smallest radiuse of cone
h #eval{0.05 * $l}; // size of cell

 
vertices
(
(0 0 0) // 0
(#eval{sqrt($R * $R - ($h/2) * ($h/2))} #eval{$h/2} 0) // 1
(#eval{sqrt($r * $r - ($h/2) * ($h/2))} #eval{($r / $R) * $h/2} $l) // 2
(0 0 $l) // 3
(#eval{sqrt($R * $R - ($h/2) * ($h/2))} #eval{-$h/2} 0) // 4
(#eval{sqrt($r * $r - ($h/2) * ($h/2))} #eval{-(($r / $R) * $h/2)} $l) // 5
);
 
blocks
(
hex (0 4 1 0 3 5 2 3) (19  1 300) simpleGrading (1 1 1)
);
 
edges
(
arc 4 1 ($R 0 0)
arc 2 5 ($r 0 $l)
);
 
boundary
(
     front
     { 
           type wedge;
           faces  
           (
               (0 1 2 3)
           );
      }
     back
     { 
           type wedge;
           faces  
           (
               (0 3 5 4)
           );
      }
     tankWall
     { 
           type wall;
           faces  
           (
               (1 4 5 2)
           );
      }
     inlet
     { 
           type patch;
           faces  
           (
               (0 4 1 0)
           );
      }
     outlet
     { 
           type patch;
           faces  
           (
               (3 5 2 3)
           );
      }
     axis
     { 
           type empty;
           faces  
           (
               (0 3 3 0)
           );
      }
);
 
mergePatchPairs
(
);