/*--------------------------------*- C++ -*----------------------------------*\
| =========                 |                                                 |
| \\      /  F ield         | OpenFOAM: The Open Source CFD Toolbox           |
|  \\    /   O peration     | Version:  2406                                  |
|   \\  /    A nd           | Website:  www.openfoam.com                      |
|    \\/     M anipulation  |                                                 |
\*---------------------------------------------------------------------------*/
FoamFile
{
    version     2.0;
    format      ascii;
    arch        "LSB;label=32;scalar=64";
    class       dictionary;
    location    "0.0275985/uniform";
    object      time;
}
// * * * * * * * * * * * * * * * * * * * * * * * * * * * * * * * * * * * * * //

value           0.0275984717547187661;

name            "0.0275985";

index           12410;

deltaT          6.628749664e-06;

deltaT0         6.634607326e-06;


// ************************************************************************* //
